Version 4
SHEET 1 1636 824
WIRE 144 -320 48 -320
WIRE 48 -256 48 -320
WIRE 144 -256 144 -320
WIRE 144 -144 144 -176
WIRE 48 -64 48 -176
WIRE 240 -64 48 -64
WIRE 384 -64 304 -64
WIRE 432 -64 384 -64
WIRE 912 -64 880 -64
WIRE 1024 -64 992 -64
WIRE 1152 -64 1088 -64
WIRE -224 -16 -272 -16
WIRE -112 -16 -144 -16
WIRE 48 -16 48 -64
WIRE 48 -16 -48 -16
WIRE 688 64 656 64
WIRE 752 64 688 64
WIRE 880 64 880 -64
WIRE 880 64 832 64
WIRE 976 64 880 64
WIRE 1152 80 1152 -64
WIRE 1152 80 1040 80
WIRE 1296 80 1152 80
WIRE 1440 80 1360 80
WIRE 1488 80 1440 80
WIRE 48 96 48 -16
WIRE 976 96 880 96
WIRE -480 144 -512 144
WIRE -448 144 -480 144
WIRE -272 144 -272 -16
WIRE -272 144 -368 144
WIRE 0 144 -272 144
WIRE 880 176 880 96
WIRE -512 224 -512 144
WIRE -272 240 -272 144
WIRE 880 336 880 256
WIRE -512 400 -512 304
WIRE -272 400 -272 320
WIRE -272 400 -512 400
WIRE -112 400 -272 400
WIRE 48 400 48 192
WIRE 48 400 -112 400
WIRE -112 448 -112 400
FLAG -112 448 0
FLAG 144 -144 0
FLAG 384 -64 out
FLAG -480 144 in
FLAG 880 336 0
FLAG 1440 80 out1
FLAG 688 64 in
DATAFLAG -112 144 ""
DATAFLAG 128 -64 ""
SYMBOL voltage 144 -272 R0
SYMATTR InstName V2
SYMATTR Value 10
SYMBOL res 64 -160 R180
WINDOW 0 36 76 Left 2
WINDOW 3 36 40 Left 2
SYMATTR InstName R4
SYMATTR Value 1k
SYMBOL res -128 -32 R90
WINDOW 0 0 56 VBottom 2
WINDOW 3 32 56 VTop 2
SYMATTR InstName R2
SYMATTR Value 16k
SYMBOL voltage -512 208 R0
WINDOW 123 43 90 Left 2
WINDOW 39 0 0 Left 0
WINDOW 0 44 31 Left 2
WINDOW 3 44 59 Left 2
SYMATTR Value2 AC 1
SYMATTR InstName V4
SYMATTR Value 5
SYMBOL res -352 128 R90
WINDOW 0 0 56 VBottom 2
WINDOW 3 32 56 VTop 2
SYMATTR InstName R1
SYMATTR Value 16k
SYMBOL MyTL431 48 144 R0
SYMATTR InstName U1
SYMBOL cap -48 -32 R90
WINDOW 0 0 32 VBottom 2
WINDOW 3 32 32 VTop 2
SYMATTR InstName C2
SYMATTR Value 10n
SYMBOL Control\\gain 272 -64 R0
WINDOW 3 5 62 Bottom 2
SYMATTR Value A=-1
SYMATTR InstName U2
SYMBOL res -256 336 R180
WINDOW 0 36 76 Left 2
WINDOW 3 36 40 Left 2
SYMATTR InstName R3
SYMATTR Value 16k
SYMBOL MyOpamp 1008 80 M180
WINDOW 39 59 -71 Center 2
WINDOW 40 76 -100 Center 2
WINDOW 0 -25 -46 Left 2
SYMATTR InstName U3
SYMBOL res 1008 -80 R90
WINDOW 0 0 56 VBottom 2
WINDOW 3 32 56 VTop 2
SYMATTR InstName R5
SYMATTR Value 16k
SYMBOL cap 1088 -80 R90
WINDOW 0 0 32 VBottom 2
WINDOW 3 32 32 VTop 2
SYMATTR InstName C1
SYMATTR Value 10n
SYMBOL res 848 48 R90
WINDOW 0 0 56 VBottom 2
WINDOW 3 32 56 VTop 2
SYMATTR InstName R6
SYMATTR Value 16k
SYMBOL voltage 880 160 R0
WINDOW 123 43 90 Left 2
WINDOW 39 0 0 Left 0
WINDOW 0 44 31 Left 2
WINDOW 3 44 59 Left 2
SYMATTR InstName V1
SYMATTR Value 2.5
SYMBOL Control\\gain 1328 80 R0
WINDOW 3 5 62 Bottom 2
SYMATTR Value A=-1
SYMATTR InstName U4
TEXT -520 -168 Left 3 ;PI compensator with TL431
TEXT 712 -168 Left 3 ;PI compensator with standard OPAMP
TEXT 376 -360 Left 2 !.op
